*Heading
** Job name: LT03D_LK02D_C10012_L1p5m_E1 Model name: LT03D_LK02D_C10012_L1p5m_E1
** Generated by: Abaqus/CAE 2022
*Preprint, echo=NO, model=NO, history=NO, contact=NO
**
** PARTS
**
*Part, name=C10012
*End Part
**  
*Part, name=Plate
*End Part
**  
**
** ASSEMBLY
**
*Assembly, name=Assembly
**  
*Instance, name=C10012, part=C10012
          0.,           1.,           0.
*Node
      1,   35.7999992,       -15.96,         761.
      2,   35.7999992,       -15.96,        1420.
      3,   40.7999992,       -15.96,        1420.
      4,   40.7999992,       -15.96,         761.
      5,   35.7999992,       -15.96,           0.
      6,   35.7999992,       -15.96,         659.
      7,   40.7999992,       -15.96,         659.
      8,   40.7999992,       -15.96,           0.
      9,   40.7999992,   35.0400009,         659.
     10,          46.,   35.0400009,         659.
     11,          46.,   35.0400009,         664.
     12,   40.7999992,   35.0400009,         664.
     13,   47.9134178,   34.6593971,         659.
     14,   47.9134178,   34.6593971,         664.
     15,        -38.5,   35.0400009,         659.
     16,         -46.,   35.0400009,         659.
     17,         -46.,   35.0400009,           0.
     18,        -38.5,   35.0400009,           0.
     19,   49.5355339,   33.5755348,         659.
     20,   49.5355339,   33.5755348,         664.
** ... 15317 like lines cut
*Element, type=S4R
  1,   1, 155, 416,   4
  2, 155, 156, 415, 416
  3, 156, 157, 414, 415
  4, 157, 158, 413, 414
  5, 158, 159, 412, 413
  6, 159, 160, 411, 412
  7, 160, 161, 410, 411
  8, 161, 162, 409, 410
  9, 162, 163, 408, 409
 10, 163, 164, 407, 408
 11, 164, 165, 406, 407
 12, 165, 166, 405, 406
 13, 166, 167, 404, 405
 14, 167, 168, 403, 404
 15, 168, 169, 402, 403
 16, 169, 170, 401, 402
 17, 170, 171, 400, 401
 18, 171, 172, 399, 400
 19, 172, 173, 398, 399
 20, 173, 174, 397, 398
** ... 14952 like lines cut
*Element, type=S3
14973,    6, 7818,    7
14974,   51,    7, 7818
14975,    1,    4, 7819
14976, 7819,    4,  104
14977,  129, 7820,  106
14978,   73,  106, 7820
14979,   56,   54, 7821
14980, 7821,   54,   70
*Nset, nset="Flats part"
     9,    10,    11,    12,    15,    16,    17,    18,    27,    28,    31,    32,    33,    34,    37,    38
    58,    59,    63,    64,    80,    81,    82,    83,    90,    91,    92,    93,    94,    98,    99,   110
   111,   115,   116,   117,   118,   119,   123,   124,   136,   137,   141,   142,   143,   144,   148,   149
   153,   154,   679,   680,   681,   682,   683,   684,   685,   686,   687,   688,   689,   690,   691,   692
   693,   694,   695,   696,   697,   698,   699,   700,   701,   702,   703,   704,   705,   706,   707,   708
   709,   710,   711,   712,   713,   714,   715,   716,   717,   718,   719,   720,   721,   722,   723,   724
   725,   726,   727,   728,   729,   730,   731,   732,   733,   734,   735,   736,   737,   738,   739,   740
   741,   742,   743,   744,   745,   746,   747,   748,   749,   750,   751,   752,   753,   754,   755,   756
   757,   758,   759,   760,   761,   762,   763,   764,   765,   766,   767,   768,   769,   770,   771,   772
   773,   774,   775,   776,   777,   778,   779,   780,   781,   782,   783,   784,   785,   786,   787,   788
   789,   790,   791,   792,   793,   794,   795,   796,   797,   798,   799,   800,   801,   802,   803,   804
   805,   806,   807,   808,   809,   810,   811,   812,   813,   814,   815,   816,   817,   818,   819,   820
   821,   822,   823,   824,   825,   826,   827,   828,   829,   830,   831,   832,   833,   834,   835,   836
   837,   838,   839,   840,   841,   842,   843,   844,   845,   846,   847,   848,   849,   850,   851,   852
   853,   854,   855,   856,   857,   858,   859,   860,   861,   862,   863,   864,   865,   866,   867,   868
   869,   870,   871,   872,   873,   874,   875,   876,   877,   878,   879,   880,   881,   882,   883,   884
   885,   886,   887,   888,   889,   890,   891,   892,   893,   894,   895,   896,   897,   898,   899,   900
   901,   902,   903,   904,   905,   906,   907,   908,   909,   910,   911,   912,   913,   914,   915,   916
   917,   918,   919,   920,   921,   922,   923,   924,   925,   926,   927,   928,   929,   930,   931,   932
   933,   934,   935,   936,   937,   938,   939,   940,  1334,  1335,  1336,  1337,  1338,  1339,  1340,  1341
** ... 390 like lines cut
*Elset, elset="Flats part"
   265,   267,   268,   269,   270,   271,   272,   273,   274,   275,   276,   277,   278,   279,   280,   281
   282,   283,   284,   285,   286,   287,   288,   289,   290,   291,   292,   293,   294,   295,   296,   297
   298,   299,   300,   301,   302,   303,   304,   305,   306,   307,   308,   309,   310,   311,   312,   313
   314,   315,   316,   317,   318,   319,   320,   321,   322,   323,   324,   325,   326,   327,   328,   329
   330,   331,   332,   333,   334,   335,   336,   337,   338,   339,   340,   341,   342,   343,   344,   345
   346,   347,   348,   349,   350,   351,   352,   353,   354,   355,   356,   357,   358,   359,   360,   361
   362,   363,   364,   365,   366,   367,   368,   369,   370,   371,   372,   373,   374,   375,   376,   377
   378,   379,   380,   381,   382,   383,   384,   385,   386,   387,   388,   389,   390,   391,   392,   393
   394,   395,   396,   397,   398,   798,   799,   800,   801,   802,   803,   804,   805,   939,   940,   941
   942,   943,   944,   945,   946,   947,   948,   949,   950,   951,   952,   953,   954,   955,   956,   957
   958,   959,   960,   961,   962,   963,   964,   965,   966,   967,   968,   969,   970,   971,   972,   973
   974,   975,   976,   977,   978,   979,   980,   981,   982,   983,   984,   985,   986,   987,   988,   989
   990,   991,   992,   993,   994,   995,   996,   997,   998,   999,  1000,  1001,  1002,  1003,  1004,  1005
  1006,  1007,  1008,  1009,  1010,  1011,  1012,  1013,  1014,  1015,  1016,  1017,  1018,  1019,  1020,  1021
  1022,  1023,  1024,  1025,  1026,  1027,  1028,  1029,  1030,  1031,  1032,  1033,  1034,  1035,  1036,  1037
  1038,  1039,  1040,  1041,  1042,  1043,  1044,  1045,  1046,  1047,  1048,  1049,  1050,  1051,  1052,  1053
  1054,  1055,  1056,  1057,  1058,  1059,  1060,  1061,  1062,  1063,  1064,  1065,  1066,  1067,  1068,  1069
  1070,  1071,  1072,  1073,  1074,  1075,  1076,  1077,  1078,  1079,  1080,  1081,  1082,  1083,  1084,  1085
  1086,  1087,  1088,  1089,  1090,  1091,  1092,  1093,  1094,  1095,  1096,  1097,  1098,  1099,  1100,  1101
  1102,  1103,  1104,  1105,  1106,  1107,  1108,  1109,  1110,  1111,  1112,  1113,  1114,  1115,  1116,  1117
** ... 318 like lines cut
*Nset, nset="Corner parts"
   10,   11,   13,   14,   16,   17,   19,   20,   21,   22,   23,   24,   25,   26,   27,   28
   29,   30,   31,   32,   33,   34,   35,   36,   37,   38,   39,   40,   41,   42,   43,   44
   45,   46,   47,   48,   49,   50,   52,   53,   58,   60,   61,   62,   63,   64,   65,   66
   67,   68,   69,   71,   72,   74,   75,   76,   77,   78,   79,   80,   81,   82,   83,   84
   85,   86,   87,   88,   89,   90,   91,   93,   95,   96,   97,   98,   99,  100,  101,  102
  103,  105,  107,  108,  109,  110,  111,  112,  113,  114,  115,  118,  120,  121,  122,  123
  124,  125,  126,  127,  128,  132,  133,  134,  135,  136,  137,  138,  139,  140,  141,  144
  145,  146,  147,  148,  149,  150,  151,  152,  679,  680,  681,  682,  683,  684,  685,  686
  687,  688,  689,  690,  691,  692,  693,  694,  695,  696,  697,  698,  699,  700,  701,  702
  703,  704,  705,  706,  707,  708,  709,  710,  711,  712,  713,  714,  715,  716,  717,  718
  719,  720,  721,  722,  723,  724,  725,  726,  727,  728,  729,  730,  731,  732,  733,  734
  735,  736,  737,  738,  739,  740,  741,  742,  743,  744,  745,  746,  747,  748,  749,  750
  751,  752,  753,  754,  755,  756,  757,  758,  759,  760,  761,  762,  763,  764,  765,  766
  767,  768,  769,  770,  771,  772,  773,  774,  775,  776,  777,  778,  779,  780,  781,  782
  783,  784,  785,  786,  787,  788,  789,  790,  791,  792,  793,  794,  795,  796,  797,  798
  799,  800,  801,  802,  803,  804,  805,  806,  807,  808,  809,  941,  942,  943,  944,  945
  946,  947,  948,  949,  950,  951,  952,  953,  954,  955,  956,  957,  958,  959,  960,  961
  962,  963,  964,  965,  966,  967,  968,  969,  970,  971,  972,  973,  974,  975,  976,  977
  978,  979,  980,  981,  982,  983,  984,  985,  986,  987,  988,  989,  990,  991,  992,  993
  994,  995,  996,  997,  998,  999, 1000, 1001, 1002, 1003, 1004, 1005, 1006, 1007, 1008, 1009
** ... 337 like lines cut
*Elset, elset="Corner parts"
   266,   399,   400,   401,   402,   403,   404,   405,   406,   407,   408,   409,   410,   411,   412,   413
   414,   415,   416,   417,   418,   419,   420,   421,   422,   423,   424,   425,   426,   427,   428,   429
   430,   431,   432,   433,   434,   435,   436,   437,   438,   439,   440,   441,   442,   443,   444,   445
   446,   447,   448,   449,   450,   451,   452,   453,   454,   455,   456,   457,   458,   459,   460,   461
   462,   463,   464,   465,   466,   467,   468,   469,   470,   471,   472,   473,   474,   475,   476,   477
   478,   479,   480,   481,   482,   483,   484,   485,   486,   487,   488,   489,   490,   491,   492,   493
   494,   495,   496,   497,   498,   499,   500,   501,   502,   503,   504,   505,   506,   507,   508,   509
   510,   511,   512,   513,   514,   515,   516,   517,   518,   519,   520,   521,   522,   523,   524,   525
   526,   527,   528,   529,   530,   531,   532,   533,   534,   535,   536,   537,   538,   539,   540,   541
   542,   543,   544,   545,   546,   547,   548,   549,   550,   551,   552,   553,   554,   555,   556,   557
   558,   559,   560,   561,   562,   563,   564,   565,   566,   567,   568,   569,   570,   571,   572,   573
   574,   575,   576,   577,   578,   579,   580,   581,   582,   583,   584,   585,   586,   587,   588,   589
   590,   591,   592,   593,   594,   595,   596,   597,   598,   599,   600,   601,   602,   603,   604,   605
   606,   607,   608,   609,   610,   611,   612,   613,   614,   615,   616,   617,   618,   619,   620,   621
   622,   623,   624,   625,   626,   627,   628,   629,   630,   631,   632,   633,   634,   635,   636,   637
   638,   639,   640,   641,   642,   643,   644,   645,   646,   647,   648,   649,   650,   651,   652,   653
   654,   655,   656,   657,   658,   659,   660,   661,   662,   663,   664,   665,   666,   667,   668,   669
   670,   671,   672,   673,   674,   675,   676,   677,   678,   679,   680,   681,   682,   683,   684,   685
   686,   687,   688,   689,   690,   691,   692,   693,   694,   695,   696,   697,   698,   699,   700,   701
   702,   703,   704,   705,   706,   707,   708,   709,   710,   711,   712,   713,   714,   715,   716,   717
** ... 264 like lines cut
*Nset, nset=_PickedSet61, internal
     1,     2,     3,     4,     5,     6,     7,     8,     9,    10,    11,    12,    15,    16,    17,    18
    27,    28,    31,    32,    33,    34,    37,    38,    47,    48,    51,    52,    53,    54,    55,    56
    57,    58,    59,    63,    64,    68,    69,    70,    71,    72,    73,    80,    81,    82,    83,    90
    91,    92,    93,    94,    98,    99,   103,   104,   105,   106,   110,   111,   115,   116,   117,   118
   119,   123,   124,   128,   129,   130,   131,   132,   136,   137,   141,   142,   143,   144,   148,   149
   153,   154,   155,   156,   157,   158,   159,   160,   161,   162,   163,   164,   165,   166,   167,   168
   169,   170,   171,   172,   173,   174,   175,   176,   177,   178,   179,   180,   181,   182,   183,   184
   185,   186,   187,   188,   189,   190,   191,   192,   193,   194,   195,   196,   197,   198,   199,   200
   201,   202,   203,   204,   205,   206,   207,   208,   209,   210,   211,   212,   213,   214,   215,   216
   217,   218,   219,   220,   221,   222,   223,   224,   225,   226,   227,   228,   229,   230,   231,   232
   233,   234,   235,   236,   237,   238,   239,   240,   241,   242,   243,   244,   245,   246,   247,   248
   249,   250,   251,   252,   253,   254,   255,   256,   257,   258,   259,   260,   261,   262,   263,   264
   265,   266,   267,   268,   269,   270,   271,   272,   273,   274,   275,   276,   277,   278,   279,   280
   281,   282,   283,   284,   285,   286,   287,   288,   289,   290,   291,   292,   293,   294,   295,   296
   297,   298,   299,   300,   301,   302,   303,   304,   305,   306,   307,   308,   309,   310,   311,   312
   313,   314,   315,   316,   317,   318,   319,   320,   321,   322,   323,   324,   325,   326,   327,   328
   329,   330,   331,   332,   333,   334,   335,   336,   337,   338,   339,   340,   341,   342,   343,   344
   345,   346,   347,   348,   349,   350,   351,   352,   353,   354,   355,   356,   357,   358,   359,   360
   361,   362,   363,   364,   365,   366,   367,   368,   369,   370,   371,   372,   373,   374,   375,   376
   377,   378,   379,   380,   381,   382,   383,   384,   385,   386,   387,   388,   389,   390,   391,   392
** ... 725 like lines cut
*Elset, elset=_PickedSet61, internal
     1,     2,     3,     4,     5,     6,     7,     8,     9,    10,    11,    12,    13,    14,    15,    16
    17,    18,    19,    20,    21,    22,    23,    24,    25,    26,    27,    28,    29,    30,    31,    32
    33,    34,    35,    36,    37,    38,    39,    40,    41,    42,    43,    44,    45,    46,    47,    48
    49,    50,    51,    52,    53,    54,    55,    56,    57,    58,    59,    60,    61,    62,    63,    64
    65,    66,    67,    68,    69,    70,    71,    72,    73,    74,    75,    76,    77,    78,    79,    80
    81,    82,    83,    84,    85,    86,    87,    88,    89,    90,    91,    92,    93,    94,    95,    96
    97,    98,    99,   100,   101,   102,   103,   104,   105,   106,   107,   108,   109,   110,   111,   112
   113,   114,   115,   116,   117,   118,   119,   120,   121,   122,   123,   124,   125,   126,   127,   128
   129,   130,   131,   132,   133,   134,   135,   136,   137,   138,   139,   140,   141,   142,   143,   144
   145,   146,   147,   148,   149,   150,   151,   152,   153,   154,   155,   156,   157,   158,   159,   160
   161,   162,   163,   164,   165,   166,   167,   168,   169,   170,   171,   172,   173,   174,   175,   176
   177,   178,   179,   180,   181,   182,   183,   184,   185,   186,   187,   188,   189,   190,   191,   192
   193,   194,   195,   196,   197,   198,   199,   200,   201,   202,   203,   204,   205,   206,   207,   208
   209,   210,   211,   212,   213,   214,   215,   216,   217,   218,   219,   220,   221,   222,   223,   224
   225,   226,   227,   228,   229,   230,   231,   232,   233,   234,   235,   236,   237,   238,   239,   240
   241,   242,   243,   244,   245,   246,   247,   248,   249,   250,   251,   252,   253,   254,   255,   256
   257,   258,   259,   260,   261,   262,   263,   264,   265,   267,   268,   269,   270,   271,   272,   273
   274,   275,   276,   277,   278,   279,   280,   281,   282,   283,   284,   285,   286,   287,   288,   289
   290,   291,   292,   293,   294,   295,   296,   297,   298,   299,   300,   301,   302,   303,   304,   305
   306,   307,   308,   309,   310,   311,   312,   313,   314,   315,   316,   317,   318,   319,   320,   321
** ... 633 like lines cut
** Section: Member
*Shell Section, elset=_PickedSet61, material="Steel - Flat Parts", offset=SPOS
1.2, 5
** Section: Member-corner
*Shell Section, elset="Corner parts", material="Steel - Flat Parts", offset=SPOS
1.2, 5
*End Instance
**  
*Instance, name=Plate-1, part=Plate
          0.,           0.,         -40.
*Node
      1,           0.,        -100.,          40.
      2,           0.,           0.,          40.
      3,        -170.,           0.,          40.
      4,        -170.,        -100.,          40.
      5,           0.,           0.,           0.
      6,        -170.,           0.,           0.
      7,        -170.,        -100.,           0.
      8,           0.,        -100.,           0.
      9,           0.,         100.,           0.
     10,           0.,         100.,          40.
     11,         170.,         100.,          40.
     12,         170.,         100.,           0.
     13,         170.,           0.,          40.
     14,         170.,           0.,           0.
     15,         170.,        -100.,          40.
     16,         170.,        -100.,           0.
     17,        -170.,         100.,           0.
     18,        -170.,         100.,          40.
     19,           0.,         -90.,          40.
     20,           0.,         -80.,          40.
** ... 3655 like lines cut
*Element, type=C3D8R
  1,  124,  730, 1948,  634,    1,   19,  346,   68
  2,  730,  731, 1949, 1948,   19,   20,  347,  346
  3,  731,  732, 1950, 1949,   20,   21,  348,  347
  4,  732,  733, 1951, 1950,   21,   22,  349,  348
  5,  733,  734, 1952, 1951,   22,   23,  350,  349
  6,  734,  735, 1953, 1952,   23,   24,  351,  350
  7,  735,  736, 1954, 1953,   24,   25,  352,  351
  8,  736,  737, 1955, 1954,   25,   26,  353,  352
  9,  737,  738, 1956, 1955,   26,   27,  354,  353
 10,  738,  130,  682, 1956,   27,    2,   28,  354
 11,  634, 1948, 1957,  635,   68,  346,  355,   67
 12, 1948, 1949, 1958, 1957,  346,  347,  356,  355
 13, 1949, 1950, 1959, 1958,  347,  348,  357,  356
 14, 1950, 1951, 1960, 1959,  348,  349,  358,  357
 15, 1951, 1952, 1961, 1960,  349,  350,  359,  358
 16, 1952, 1953, 1962, 1961,  350,  351,  360,  359
 17, 1953, 1954, 1963, 1962,  351,  352,  361,  360
 18, 1954, 1955, 1964, 1963,  352,  353,  362,  361
 19, 1955, 1956, 1965, 1964,  353,  354,  363,  362
 20, 1956,  682,  683, 1965,  354,   28,   29,  363
** ... 2700 like lines cut
*Nset, nset=PlateMaterials, generate
    1,  3675,     1
*Elset, elset=PlateMaterials, generate
    1,  2720,     1
** Section: Support
*Solid Section, elset=PlateMaterials, material="Steel - Flat Parts"
,
*End Instance
**  
*Instance, name=Plate-2, part=Plate
          0., -7.105427357601e-15,        1420.
*Node
      1,           0.,        -100.,          40.
      2,           0.,           0.,          40.
      3,        -170.,           0.,          40.
      4,        -170.,        -100.,          40.
      5,           0.,           0.,           0.
      6,        -170.,           0.,           0.
      7,        -170.,        -100.,           0.
      8,           0.,        -100.,           0.
      9,           0.,         100.,           0.
     10,           0.,         100.,          40.
     11,         170.,         100.,          40.
     12,         170.,         100.,           0.
     13,         170.,           0.,          40.
     14,         170.,           0.,           0.
     15,         170.,        -100.,          40.
     16,         170.,        -100.,           0.
     17,        -170.,         100.,           0.
     18,        -170.,         100.,          40.
     19,           0.,         -90.,          40.
     20,           0.,         -80.,          40.
** ... 3655 like lines cut
*Element, type=C3D8R
  1,  124,  730, 1948,  634,    1,   19,  346,   68
  2,  730,  731, 1949, 1948,   19,   20,  347,  346
  3,  731,  732, 1950, 1949,   20,   21,  348,  347
  4,  732,  733, 1951, 1950,   21,   22,  349,  348
  5,  733,  734, 1952, 1951,   22,   23,  350,  349
  6,  734,  735, 1953, 1952,   23,   24,  351,  350
  7,  735,  736, 1954, 1953,   24,   25,  352,  351
  8,  736,  737, 1955, 1954,   25,   26,  353,  352
  9,  737,  738, 1956, 1955,   26,   27,  354,  353
 10,  738,  130,  682, 1956,   27,    2,   28,  354
 11,  634, 1948, 1957,  635,   68,  346,  355,   67
 12, 1948, 1949, 1958, 1957,  346,  347,  356,  355
 13, 1949, 1950, 1959, 1958,  347,  348,  357,  356
 14, 1950, 1951, 1960, 1959,  348,  349,  358,  357
 15, 1951, 1952, 1961, 1960,  349,  350,  359,  358
 16, 1952, 1953, 1962, 1961,  350,  351,  360,  359
 17, 1953, 1954, 1963, 1962,  351,  352,  361,  360
 18, 1954, 1955, 1964, 1963,  352,  353,  362,  361
 19, 1955, 1956, 1965, 1964,  353,  354,  363,  362
 20, 1956,  682,  683, 1965,  354,   28,   29,  363
** ... 2700 like lines cut
*Nset, nset=PlateMaterials, generate
    1,  3675,     1
*Elset, elset=PlateMaterials, generate
    1,  2720,     1
** Section: Support
*Solid Section, elset=PlateMaterials, material="Steel - Flat Parts"
,
*End Instance
**  
*Nset, nset=BC-1, instance=Plate-1
   5,   6,  14,  78,  79,  80,  81,  82,  83,  84,  85,  86,  87,  88,  89,  90
  91,  92,  93, 188, 189, 190, 191, 192, 193, 194, 195, 196, 197, 198, 199, 200
 201, 202, 203
*Nset, nset=BC-2, instance=Plate-2
   2,   3,  13,  28,  29,  30,  31,  32,  33,  34,  35,  36,  37,  38,  39,  40
  41,  42,  43, 169, 170, 171, 172, 173, 174, 175, 176, 177, 178, 179, 180, 181
 182, 183, 184
*Nset, nset=NodesA, instance=C10012
    5,    8,   17,   18,   22,   26,   30,   34,   38,   42,   46,   50,   53,   55,   57,   69
  143,  144,  145,  146,  147,  148,  149,  150,  151,  152,  154, 1617, 1618, 1619, 1620, 1621
 1622, 1623, 2291, 2292, 2293, 2294, 2295, 2296, 2297, 2298, 2299, 2300, 2301, 2302, 6478, 7135
 7136, 7137, 7138, 7139, 7140, 7141
*Nset, nset=NodesB, instance=C10012
    2,    3,  118,  119,  120,  121,  122,  123,  124,  125,  126,  127,  128,  130,  131,  132
  133,  134,  135,  136,  137,  138,  139,  140,  141,  142,  153, 3927, 3928, 3929, 3930, 3931
 3932, 3933, 4590, 4853, 4854, 4855, 4856, 4857, 4858, 4859, 4860, 4861, 4862, 4863, 4864, 5520
 5521, 5522, 5523, 5524, 5525, 5526
*Elset, elset=_Plate-front-A_S2, internal, instance=Plate-1, generate
   1,  170,    1
*Elset, elset=_Plate-front-A_S4, internal, instance=Plate-1, generate
  684,  2040,     4
*Elset, elset=_Plate-front-A_S6, internal, instance=Plate-1, generate
 2041,  2717,     4
*Surface, type=ELEMENT, name=Plate-front-A
_Plate-front-A_S2, S2
_Plate-front-A_S4, S4
_Plate-front-A_S6, S6
*Elset, elset=_Plate-front-B_S6, internal, instance=Plate-2, generate
  681,  2037,     4
*Elset, elset=_Plate-front-B_S4, internal, instance=Plate-2, generate
 2044,  2720,     4
*Elset, elset=_Plate-front-B_S1, internal, instance=Plate-2, generate
 511,  680,    1
*Surface, type=ELEMENT, name=Plate-front-B
_Plate-front-B_S6, S6
_Plate-front-B_S4, S4
_Plate-front-B_S1, S1
*Surface, type=NODE, name=NodesA_CNS_, internal
NodesA, 1.
*Surface, type=NODE, name=NodesB_CNS_, internal
NodesB, 1.
** Constraint: Tie_A
*Tie, name=Tie_A, adjust=no
NodesA_CNS_, Plate-front-A
** Constraint: Tie_B
*Tie, name=Tie_B, adjust=no
NodesB_CNS_, Plate-front-B
*End Assembly
** 
** MATERIALS
** 
*Material, name="Steel - Corners"
*Density
 7.85e-05,
*Elastic
208107., 0.3
*Plastic
 574.57,     0.
 586.15, 0.0009
 604.45,  0.002
 613.35, 0.0031
 626.11, 0.0044
 627.97, 0.0056
 632.79, 0.0098
 636.68,  0.011
 639.44,  0.013
  642.4, 0.0148
*Material, name="Steel - Flat Parts"
*Density
 7.85e-05,
*Elastic
209570., 0.3
*Plastic
 377.86,     0.
 406.47, 0.0001
 417.42, 0.0002
 448.66, 0.0003
 462.26, 0.0004
 468.98, 0.0006
 476.53,  0.001
 484.03, 0.0016
 490.46,  0.004
 495.51, 0.0078
 501.51, 0.0125
 508.47, 0.0176
 517.72, 0.0244
 533.44, 0.0389
 544.46, 0.0538
 549.69, 0.0633
** 
** BOUNDARY CONDITIONS
** 
** Name: BC-1 Type: Displacement/Rotation
*Boundary
BC-1, 1, 1
BC-1, 2, 2
BC-1, 3, 3
** Name: BC-2 Type: Displacement/Rotation
*Boundary
BC-2, 1, 1
BC-2, 2, 2
BC-2, 3, 3
** ----------------------------------------------------------------
** 
** STEP: Step-1
** 
*Step, name=Step-1, nlgeom=YES, inc=60
*Static, riks
1e-07, 1e-07, 1e-20, 1e+15, , 
** 
** BOUNDARY CONDITIONS
** 
** Name: BC-2 Type: Displacement/Rotation
*Boundary
BC-2, 3, 3, -0.001
** 
** CONTROLS
** 
*Controls, reset
*Controls, parameters=time incrementation
100, 100, , , , , , 500, , , 
** 
** OUTPUT REQUESTS
** 
*Restart, write, frequency=0
** 
** FIELD OUTPUT: F-Output-1
** 
*Output, field, variable=PRESELECT
** 
** HISTORY OUTPUT: H-Output-1
** 
*Output, history, variable=PRESELECT
*End Step
